$ This is a Pad with attachment to the LV at 2101-2104
$ English units: Inches and lbs (weight)
$                                  ________
$                                 /       /|
$               Grids 2101-2104  /       / |
$               CBUSH 2001-2004 /______ /  |  Diagonals not shown
$                              |       |   |
$                    X         |       |  /|
$                    ^         |       | / |
$                    |         |_______|/  |
$                    |____>Z   |       |   |
$                    /         |       |  /| 
$                   /          |       | / |
$                   Y          |_______|/ \\\
$                              |       |
$                              |       |
$                             \\\     \\\
$
GRID        2101       0      0.     36.     36.       0
GRID        2102       0      0.    -36.     36.       0
GRID        2103       0      0.    -36.    -36.       0
GRID        2104       0      0.     36.    -36.       0
GRID        2111       0      0.     36.     36.       0
GRID        2112       0      0.    -36.     36.       0
GRID        2113       0      0.    -36.    -36.       0
GRID        2114       0      0.     36.    -36.       0
GRID        2201       0   -100.     54.     54.       0
GRID        2202       0   -100.    -54.     54.       0
GRID        2203       0   -100.    -54.    -54.       0
GRID        2204       0   -100.     54.    -54.       0
GRID        2301       0   -200.     72.     72.       0
GRID        2302       0   -200.    -72.     72.       0
GRID        2303       0   -200.    -72.    -72.       0
GRID        2304       0   -200.     72.    -72.       0
$
$ CBUSH For Interface Forces
CBUSH       2001    2001    2101    2111                               0
CBUSH       2002    2001    2102    2112                               0
CBUSH       2003    2001    2103    2113                               0
CBUSH       2004    2001    2104    2114                               0
PBUSH       2001       K   1.E12   1.E12   1.E12   1.E12   1.E12   1.E12 
$
$ Horizontal Beams
CBEAM       2101     201    2111    2112      1.      0.      0.
CBEAM       2102     201    2112    2113      1.      0.      0.
CBEAM       2103     201    2113    2114      1.      0.      0.
CBEAM       2104     201    2114    2111      1.      0.      0.
CBEAM       2201     201    2201    2202      1.      0.      0.
CBEAM       2202     201    2202    2203      1.      0.      0.
CBEAM       2203     201    2203    2204      1.      0.      0.
CBEAM       2204     201    2204    2201      1.      0.      0.
PBEAML       201     998             BAR
             10.     10.
$ Vertical Beams
CBEAM       2111     202    2111    2201      0.      1.      0.
CBEAM       2112     202    2112    2202      0.      1.      0.
CBEAM       2113     202    2113    2203      0.      1.      0.
CBEAM       2114     202    2114    2204      0.      1.      0.
CBEAM       2211     202    2201    2301      0.      1.      0.
CBEAM       2212     202    2202    2302      0.      1.      0.
CBEAM       2213     202    2203    2303      0.      1.      0.
CBEAM       2214     202    2204    2304      0.      1.      0.
PBEAML       202     998             BAR
             10.     10.
$ Diagonal Beams (Outside)
CBEAM       2121     203    2111    2204      0.      1.      0.
CBEAM       2122     203    2111    2202      0.      1.      0.
CBEAM       2123     203    2112    2201      0.      1.      0.
CBEAM       2124     203    2112    2203      0.      1.      0.
CBEAM       2125     203    2113    2202      0.      1.      0.
CBEAM       2126     203    2113    2204      0.      1.      0.
CBEAM       2127     203    2114    2203      0.      1.      0.
CBEAM       2128     203    2114    2201      0.      1.      0.
CBEAM       2221     203    2201    2304      0.      1.      0.
CBEAM       2222     203    2201    2302      0.      1.      0.
CBEAM       2223     203    2202    2301      0.      1.      0.
CBEAM       2224     203    2202    2303      0.      1.      0.
CBEAM       2225     203    2203    2302      0.      1.      0.
CBEAM       2226     203    2203    2304      0.      1.      0.
CBEAM       2227     203    2204    2303      0.      1.      0.
CBEAM       2228     203    2204    2301      0.      1.      0.
PBEAML       203     998             BAR
             10.     10.
$ Diagonal Beams (Inside)
CBEAM       2141     204    2111    2113      0.      1.      0.
CBEAM       2142     204    2112    2114      0.      1.      0.
CBEAM       2241     204    2201    2203      0.      1.      0.
CBEAM       2242     204    2202    2204      0.      1.      0.
PBEAML       204     998             BAR
             10.     10.
$
MAT1         998 1.0E+07             .33      .1
$
$ Masses to bring modes <30 Hz
CONM2       2911    2111       0  10000.  
           2.E+7           2.E+7                   2.E+7
CONM2       2912    2112       0  10000.  
           2.E+7           2.E+7                   2.E+7
CONM2       2913    2113       0  10000.  
           2.E+7           2.E+7                   2.E+7
CONM2       2914    2114       0  10000.  
           2.E+7           2.E+7                   2.E+7
$
SPC1         200  123456    2301    2302    2303    2304
$